exemplo_CTAP.PWF
(
( Gravacao de .PWF - CART
( Versao do Anarede: 12.00.01
( Data e Hora da Gravacao: 04/06/2025 - 09:32:34                                                           
(
TITU
IEEE 14 Bus Test Case - Winter 1962                                             
DOPC IMPR
(Op) E (Op) E (Op) E (Op) E (Op) E (Op) E (Op) E (Op) E (Op) E (Op) E
CREM L CTAP L NEWT L RCVG L RMON L NOVO L MFCT L PMIN L INMN L UNPG L
99999
DBAR
(Num)OETGb(   nome   )Gl( V)( A)( Pg)( Qg)( Qn)( Qm)(Bc  )( Pl)( Ql)( Sh)Are(Vf)M(1)(2)(3)(4)(5)(6)(7)(8)(9)(10
    1 L2  Barra-01--HV  1060  0.233.2-12.3-999999999                       11000                                   
    2 L1  Barra-02--HV  1045 -5.  40.57.39 -40.  50.       21.7 12.7       11000                                   
    3 L1  Barra-03--HV  1010-13.   0.33.39   0.  40.       94.2  19.       11000                                   
    4 L   Barra-04--HV  1004-10.                           47.8 -3.9       11000                                   
    5 L   Barra-05--HV  1010-8.7                            7.6  1.6       11000                                   
    6 L1  Barra-06--LV  1070-15.   0.35.47  -6.  24.    12 11.2  7.5       11000                                   
    7 L   Barra-07--ZV  1000-13.                                           11000                                   
    8 L1  Barra-08--TV  1090-13.   0.-26.3  -6.  24.     7                 11000                                   
    9 L   Barra-09--LV  1018-15.                           29.5 16.6  19.  11000                                   
   10 L   Barra-10--LV  1023-15.                             9.  5.8       11000                                   
   11 L   Barra-11--LV  1052-15.                            3.5  1.8       11000                                   
   12 L   Barra-12--LV  1070-15.                            6.1  1.6       11000                                   
   13 L   Barra-13--LV  1061-15.                           13.5  5.8       11000                                   
   14 L   Barra-14--LV  1018-16.                           14.9   5.       11000                                   
99999
DLIN
(De )d O d(Pa )NcEPM( R% )( X% )(Mvar)(Tap)(Tmn)(Tmx)(Phs)(Bc  )(Cn)(Ce)Ns(Cq)(1)(2)(3)(4)(5)(6)(7)(8)(9)(10 (U) Uop
    1         2 1    1.938 5.917  5.28                          99999999  9999
    1         5 1    5.40322.304  4.92                          99999999  9999
    2         3 1    4.69919.797  4.38                          99999999  9999
    2         4 1    5.81117.632   3.4                          99999999  9999
    2         5 1    5.69517.388  3.46                          99999999  9999
    3         4 1    6.70117.103  1.28                          99999999  9999
    4         5 1    1.335 4.211                                99999999  9999
    4         7 1         20.912       .978                     99999999  9999                                 1   1
    4         9 1         55.618       .969                    99999999  9999                                 1   1
    5         6 1         25.202      .9126   .8  1.2          599999999339999                                 1   1
    6        11 1    9.498 19.89                                99999999  9999
    6        12 1   12.29125.581                                99999999  9999
    6        13 1    6.61513.027                                99999999  9999
    7         8 1         17.615                                99999999  9999
    7         9 1         11.001                                99999999  9999
    9        10 1    3.181  8.45                                99999999  9999
    9        14 1   12.71127.038                                99999999  9999
   10        11 1    8.20519.207                                99999999  9999
   12        13 1   22.09219.988                                99999999  9999
   13        14 1   17.09334.802                                99999999  9999
99999
FIM
